Version 4
SHEET 1 4340 680
WIRE 2480 -240 2144 -240
WIRE 2608 -240 2480 -240
WIRE 2800 -240 2672 -240
WIRE 2912 -240 2800 -240
WIRE 2960 -240 2912 -240
WIRE 2144 -224 2144 -240
WIRE 2480 -224 2480 -240
WIRE 2800 -224 2800 -240
WIRE 2960 -208 2960 -240
WIRE 1456 -128 1360 -128
WIRE 1856 -128 1456 -128
WIRE 2032 -128 1856 -128
WIRE 2144 -128 2144 -160
WIRE 2144 -128 2112 -128
WIRE 2192 -128 2144 -128
WIRE 2288 -128 2256 -128
WIRE 2480 -128 2480 -160
WIRE 2480 -128 2288 -128
WIRE 2576 -128 2480 -128
WIRE 2800 -128 2800 -160
WIRE 2800 -128 2576 -128
WIRE 1360 -112 1360 -128
WIRE 1456 -112 1456 -128
WIRE 2480 -96 2480 -128
WIRE 1856 -80 1856 -128
WIRE 1248 -16 1248 -32
WIRE 1360 -16 1360 -32
WIRE 1456 -16 1456 -32
WIRE 1696 -16 1456 -16
WIRE 2032 -16 2016 -16
WIRE 2144 0 2144 -128
WIRE 1600 80 1568 80
WIRE 1696 80 1664 80
WIRE 2096 80 2016 80
WIRE 2144 112 2144 96
WIRE 2144 112 2080 112
WIRE 2144 128 2144 112
WIRE 2288 144 2288 -128
WIRE 3552 144 3552 112
WIRE 3616 144 3552 144
WIRE 4016 144 4016 112
WIRE 4080 144 4016 144
WIRE 3808 160 3808 128
WIRE 3808 160 3744 160
WIRE 4272 160 4272 128
WIRE 4272 160 4208 160
WIRE 1600 176 1568 176
WIRE 1696 176 1680 176
WIRE 2080 176 2080 112
WIRE 2080 176 2016 176
WIRE 3552 192 3552 144
WIRE 4016 192 4016 144
WIRE 2144 224 2144 208
WIRE 3808 256 3808 160
WIRE 4272 256 4272 160
WIRE 1520 272 1504 272
WIRE 1600 272 1584 272
WIRE 1696 272 1680 272
WIRE 2288 272 2288 224
WIRE 2288 272 2016 272
WIRE 2288 288 2288 272
WIRE 3808 288 3808 256
WIRE 3808 288 3744 288
WIRE 4272 288 4272 256
WIRE 4272 288 4208 288
WIRE 3552 304 3552 272
WIRE 3616 304 3552 304
WIRE 4016 304 4016 272
WIRE 4080 304 4016 304
WIRE 3552 320 3552 304
WIRE 4016 320 4016 304
WIRE 1856 352 1856 336
WIRE 2288 384 2288 368
WIRE 3680 384 3680 352
WIRE 4144 384 4144 352
FLAG 1568 176 0
FLAG 2288 384 0
FLAG 1856 352 0
FLAG 1504 272 0
FLAG 1360 -16 0
FLAG 1568 80 0
FLAG 2096 -16 0
FLAG 1360 -128 IN
FLAG 2144 224 0
FLAG 2480 -32 0
FLAG 2960 -144 0
FLAG 2912 -240 POS180
FLAG 2576 -128 POS90
FLAG 3680 384 0
FLAG 1248 -112 pos3p3
FLAG 1248 -16 0
FLAG 3680 96 pos3p3
FLAG 3552 400 POS180
FLAG 3552 32 0
FLAG 3808 48 pos3p3
FLAG 3808 256 pos180_pgood
FLAG 4144 384 0
FLAG 4144 96 pos3p3
FLAG 4016 400 POS90
FLAG 4016 32 0
FLAG 4272 48 pos3p3
FLAG 4272 256 pos90_pgood
SYMBOL NMOS 2096 0 R0
SYMATTR InstName Q1
SYMATTR Value IRFP240
SYMBOL RES 1696 192 M270
WINDOW 0 32 56 VTop 2
WINDOW 3 0 56 VBottom 2
SYMATTR InstName R1
SYMATTR Value 14k
SYMBOL res 2272 272 R0
SYMATTR InstName R2
SYMATTR Value 27k
SYMBOL res 2272 128 R0
SYMATTR InstName R3
SYMATTR Value 1.5Meg
SYMBOL ind 2016 -112 R270
WINDOW 0 32 56 VTop 2
WINDOW 3 5 56 VBottom 2
SYMATTR InstName L1
SYMATTR Value 680µ
SYMBOL diode 2192 -112 R270
WINDOW 0 32 32 VTop 2
WINDOW 3 0 32 VBottom 2
SYMATTR InstName D1
SYMATTR Value RRU1LAM4S
SYMATTR Description Schottky diode
SYMATTR Type schottky
SYMBOL res 1696 288 M270
WINDOW 0 32 56 VTop 2
WINDOW 3 0 56 VBottom 2
SYMATTR InstName R4
SYMATTR Value 100k
SYMBOL cap 1584 288 M270
WINDOW 0 32 32 VTop 2
WINDOW 3 0 32 VBottom 2
SYMATTR InstName C2
SYMATTR Value .01µ
SYMBOL VOLTAGE 1360 -128 R0
SYMATTR InstName V1
SYMATTR Value 24
SYMBOL polcap 2032 -32 M90
WINDOW 0 0 32 VBottom 2
WINDOW 3 32 32 VTop 2
SYMATTR InstName C3
SYMATTR Value 4.7µ
SYMBOL cap 1664 64 R90
WINDOW 0 0 32 VBottom 2
WINDOW 3 32 32 VTop 2
SYMATTR InstName C4
SYMATTR Value 0.01µ
SYMBOL res 1440 -128 R0
SYMATTR InstName R6
SYMATTR Value 200K
SYMBOL res 2128 112 R0
SYMATTR InstName R7
SYMATTR Value 0.36
SYMBOL PowerProducts\\LT3757A 1856 128 R0
SYMATTR InstName U1
SYMBOL cap 2464 -96 R0
SYMATTR InstName C1
SYMATTR Value 0.1µ
SYMBOL diode 2496 -160 R180
WINDOW 0 24 64 Left 2
WINDOW 3 24 0 Left 2
SYMATTR InstName D2
SYMATTR Value RRU1LAM4S
SYMATTR Description Schottky diode
SYMATTR Type schottky
SYMBOL diode 2608 -224 R270
WINDOW 0 32 32 VTop 2
WINDOW 3 0 32 VBottom 2
SYMATTR InstName D3
SYMATTR Value RRU1LAM4S
SYMATTR Description Schottky diode
SYMATTR Type schottky
SYMBOL cap 2128 -224 R0
SYMATTR InstName C5
SYMATTR Value 0.1µ
SYMBOL cap 2784 -224 R0
SYMATTR InstName C6
SYMATTR Value 0.1µ
SYMBOL cap 2944 -208 R0
SYMATTR InstName C7
SYMATTR Value 1.5µ
SYMBOL Comparators\\LT6700-1 3680 224 R0
SYMATTR InstName U2
SYMBOL voltage 1248 -128 R0
SYMATTR InstName V2
SYMATTR Value 3.3
SYMBOL res 3536 176 R0
SYMATTR InstName R5
SYMATTR Value 330
SYMBOL res 3536 16 R0
SYMATTR InstName R8
SYMATTR Value 3.4k
SYMBOL res 3536 304 R0
SYMATTR InstName R9
SYMATTR Value 1.6Meg
SYMBOL res 3792 32 R0
SYMATTR InstName R10
SYMATTR Value 10k
SYMBOL Comparators\\LT6700-1 4144 224 R0
SYMATTR InstName U3
SYMBOL res 4000 176 R0
SYMATTR InstName R11
SYMATTR Value 1k
SYMBOL res 4000 16 R0
SYMATTR InstName R12
SYMATTR Value 40.2k
SYMBOL res 4000 304 R0
SYMATTR InstName R13
SYMATTR Value 10k
SYMBOL res 4256 32 R0
SYMATTR InstName R14
SYMATTR Value 10k
TEXT 2400 368 Left 2 !.tran 100m startup
